Version 4
SHEET 1 1020 680
WIRE 480 16 432 16
WIRE 752 16 592 16
WIRE 496 64 480 64
WIRE 752 80 752 16
WIRE 768 80 752 80
WIRE 896 96 864 96
WIRE 768 112 752 112
WIRE 480 160 432 160
WIRE 784 160 768 160
WIRE 608 176 576 176
WIRE 752 176 752 112
WIRE 752 176 720 176
WIRE 480 192 432 192
WIRE 624 224 608 224
WIRE 496 240 480 240
FLAG 112 160 0
FLAG 0 160 0
FLAG -112 160 0
FLAG -112 80 A
IOPIN -112 80 In
FLAG 0 80 B
IOPIN 0 80 In
FLAG 112 80 C
IOPIN 112 80 In
FLAG 432 16 A
IOPIN 432 16 In
FLAG 432 160 B
IOPIN 432 160 In
FLAG 432 192 C
IOPIN 432 192 In
FLAG 224 160 0
FLAG 224 80 VDD
FLAG 896 96 Y
IOPIN 896 96 Out
FLAG 496 64 VDD
FLAG 496 240 VDD
FLAG 624 224 VDD
FLAG 784 160 VDD
SYMBOL voltage -112 64 R0
WINDOW 123 0 0 Left 0
WINDOW 39 0 0 Left 0
SYMATTR InstName V1
SYMATTR Value 5
SYMBOL voltage 0 64 R0
WINDOW 123 0 0 Left 0
WINDOW 39 0 0 Left 0
SYMATTR InstName V2
SYMATTR Value 5
SYMBOL voltage 112 64 R0
WINDOW 123 0 0 Left 0
WINDOW 39 0 0 Left 0
SYMATTR InstName V3
SYMATTR Value 0
SYMBOL nor 528 176 R0
SYMATTR InstName NOR-1
SYMBOL nor 816 96 R0
SYMATTR InstName NOR-2
SYMBOL voltage 224 64 R0
WINDOW 123 0 0 Left 0
WINDOW 39 0 0 Left 0
SYMATTR InstName V4
SYMATTR Value 5
SYMBOL inversor 528 16 R0
SYMATTR InstName INVERSOR-1
SYMBOL inversor 656 176 R0
SYMATTR InstName INVERSOR-2
TEXT -192 -16 Left 2 ;VALUES
TEXT 368 -64 Left 2 ;A+NOT(B)+NOT(C)
TEXT -192 288 Left 2 !.tran 100M
RECTANGLE Normal -192 0 336 208 2
RECTANGLE Normal 960 272 368 -48 2
