Version 4
SHEET 1 880 680
WIRE 224 48 224 16
WIRE 272 48 224 48
WIRE 224 64 224 48
WIRE 272 112 272 48
WIRE 272 112 224 112
WIRE 176 144 80 144
WIRE 80 176 80 144
WIRE 80 176 48 176
WIRE 224 176 224 160
WIRE 368 176 224 176
WIRE 224 192 224 176
WIRE 272 240 224 240
WIRE 80 272 80 176
WIRE 176 272 80 272
WIRE 224 304 224 288
WIRE 272 304 272 240
WIRE 272 304 224 304
WIRE 224 320 224 304
FLAG 224 320 0
FLAG 48 176 IN
IOPIN 48 176 In
FLAG 368 176 OUT
IOPIN 368 176 Out
FLAG 224 16 VDD
FLAG -144 96 0
FLAG -272 96 0
FLAG -144 16 VDD
FLAG -272 16 TIN
IOPIN -272 16 In
SYMBOL voltage -272 0 R0
WINDOW 123 0 0 Left 0
WINDOW 39 0 0 Left 0
SYMATTR InstName V1
SYMATTR Value ""
SYMBOL voltage -144 0 R0
WINDOW 123 0 0 Left 0
WINDOW 39 0 0 Left 0
SYMATTR InstName V2
SYMATTR Value 5
SYMBOL nmos4 176 192 R0
SYMATTR InstName M2
SYMBOL pmos4 176 64 R0
SYMATTR InstName M1
TEXT -32 -80 Left 2 ;INVERSOR
TEXT -336 -80 Left 2 ;VALUES
TEXT -336 392 Left 2 !.tran 100M
TEXT -336 160 Left 2 ;TIN - IN value for tests
RECTANGLE Normal -64 144 -336 -64 2
RECTANGLE Normal 464 384 -32 -64 2
