Version 4
SHEET 1 880 680
WIRE 176 112 80 112
WIRE 224 160 224 128
WIRE 80 176 80 112
WIRE 80 176 48 176
WIRE 368 176 288 176
WIRE 80 240 80 176
WIRE 176 240 80 240
FLAG 48 176 IN
IOPIN 48 176 In
FLAG 368 176 OUT
IOPIN 368 176 Out
FLAG 288 48 VDD
IOPIN 288 48 In
FLAG -144 96 0
FLAG -272 96 0
FLAG -144 16 TVDD
FLAG -272 16 TIN
IOPIN -272 16 In
FLAG 288 304 0
SYMBOL voltage -272 0 R0
WINDOW 123 0 0 Left 0
WINDOW 39 0 0 Left 0
SYMATTR InstName V1
SYMATTR Value ""
SYMBOL voltage -144 0 R0
WINDOW 123 0 0 Left 0
WINDOW 39 0 0 Left 0
SYMATTR InstName V2
SYMATTR Value 5
SYMBOL PMOSX 256 96 R0
SYMATTR InstName PMOS
SYMBOL NMOSX 256 224 R0
SYMATTR InstName NMOS
TEXT -32 -80 Left 2 ;INVERSOR
TEXT -336 -80 Left 2 ;VALUES
TEXT -336 392 Left 2 !.tran 100M
TEXT -336 160 Left 2 ;TIN - IN value for tests
RECTANGLE Normal -64 144 -336 -64 2
RECTANGLE Normal 464 384 -32 -64 2
