Version 4
SHEET 1 1052 680
WIRE 720 -144 624 -144
WIRE 720 -16 688 -16
WIRE 624 16 624 -144
WIRE 624 16 560 16
WIRE 832 64 832 48
WIRE 944 64 832 64
WIRE 688 80 688 -16
WIRE 800 80 688 80
WIRE 688 96 688 80
WIRE 688 96 560 96
WIRE 832 96 832 64
WIRE 832 96 752 96
WIRE 912 96 832 96
WIRE 624 160 624 16
WIRE 640 160 624 160
WIRE 800 160 800 80
WIRE 912 224 752 224
FLAG 368 -64 0
FLAG 368 -144 TVDD
FLAG 256 -64 0
FLAG 256 -144 TY
IOPIN 256 -144 In
FLAG 144 -64 0
FLAG 144 -144 TX
IOPIN 144 -144 In
FLAG 560 16 X
IOPIN 560 16 In
FLAG 560 96 Y
IOPIN 560 96 In
FLAG 944 64 OUT
IOPIN 944 64 Out
FLAG 832 -208 VDD
IOPIN 832 -208 In
SYMBOL voltage 368 -160 R0
WINDOW 123 0 0 Left 0
WINDOW 39 0 0 Left 0
SYMATTR InstName V1
SYMATTR Value 5
SYMBOL voltage 256 -160 R0
WINDOW 123 0 0 Left 0
WINDOW 39 0 0 Left 0
SYMATTR InstName V2
SYMATTR Value ""
SYMBOL voltage 144 -160 R0
WINDOW 123 0 0 Left 0
WINDOW 39 0 0 Left 0
SYMATTR InstName V3
SYMATTR Value ""
SYMBOL PMOSX 800 -160 R0
SYMATTR InstName PMOS
SYMBOL PMOSX 800 -32 R0
SYMATTR InstName PMOS-1
SYMBOL NMOSX 720 144 R0
SYMATTR InstName NMOS
SYMBOL NMOSX 880 144 R0
SYMATTR InstName NMOS-1
TEXT 480 -304 Left 2 ;NOR
TEXT 80 -256 Left 2 ;VALUES
TEXT 72 248 Left 2 !.tran 100M
TEXT 80 16 Left 2 ;TX - X (first) value for tests
TEXT 80 48 Left 2 ;TY - Y (second) value for tests
RECTANGLE Normal 464 0 80 -240 2
RECTANGLE Normal 1024 256 480 -288 2
