Version 4
SHEET 1 1036 680
WIRE 848 -128 768 -128
WIRE 720 -96 624 -96
WIRE 768 -48 768 -80
WIRE 848 0 768 0
WIRE 624 16 624 -96
WIRE 624 16 560 16
WIRE 720 32 688 32
WIRE 736 80 736 32
WIRE 912 80 736 80
WIRE 688 96 688 32
WIRE 688 96 560 96
WIRE 784 96 688 96
WIRE 736 112 736 80
WIRE 736 112 688 112
WIRE 832 112 736 112
WIRE 624 192 624 16
WIRE 640 192 624 192
WIRE 784 192 784 96
WIRE 768 208 688 208
WIRE 832 208 768 208
WIRE 768 224 768 208
FLAG 688 160 0
FLAG 832 160 0
FLAG 848 0 VDD
FLAG 848 -128 VDD
FLAG 768 48 0
FLAG 368 -64 0
FLAG 368 -144 VDD
FLAG 256 -64 0
FLAG 256 -144 TY
IOPIN 256 -144 In
FLAG 144 -64 0
FLAG 144 -144 TX
IOPIN 144 -144 In
FLAG 560 16 X
IOPIN 560 16 In
FLAG 560 96 Y
IOPIN 560 96 In
FLAG 768 224 0
FLAG 768 -176 VDD
FLAG 912 80 OUT
IOPIN 912 80 Out
SYMBOL pmos4 720 -176 R0
SYMATTR InstName M1
SYMBOL pmos4 720 -48 R0
SYMATTR InstName M2
SYMBOL nmos4 784 112 R0
SYMATTR InstName M3
SYMBOL nmos4 640 112 R0
SYMATTR InstName M4
SYMBOL voltage 368 -160 R0
WINDOW 123 0 0 Left 0
WINDOW 39 0 0 Left 0
SYMATTR InstName V1
SYMATTR Value 5
SYMBOL voltage 256 -160 R0
WINDOW 123 0 0 Left 0
WINDOW 39 0 0 Left 0
SYMATTR InstName V2
SYMATTR Value ""
SYMBOL voltage 144 -160 R0
WINDOW 123 0 0 Left 0
WINDOW 39 0 0 Left 0
SYMATTR InstName V3
SYMATTR Value ""
TEXT 480 -256 Left 2 ;NOR
TEXT 80 -256 Left 2 ;VALUES
TEXT 72 248 Left 2 !.tran 100M
TEXT 80 16 Left 2 ;TX - X (first) value for tests
TEXT 80 48 Left 2 ;TY - Y (second) value for tests
RECTANGLE Normal 464 0 80 -240 2
RECTANGLE Normal 1024 256 480 -240 2
